Questionable use of curly braces in ".model sir870adp vdmos(rg=3 vto=2.9 rd=3.2m rs=1.5m rb={m} kp=100 mtriode=1.85 cgdmax=1.4n cgdmin=70p cgs=2.9n cjo=3.6n m=.4 a=.7 vj=.7 lambda=20m is=3p ksubthres=.08 mfg=siliconix vds=100 ron=5.5m qg=53.5n)"
    Error: undefined symbol in: "[m]"
Circuit: * C:\Users\arpit\Desktop\Study\WINTER 22\VLSI LAB\TASK 5 files\negative latch .asc

Ignoring BSIM parameter XL
Ignoring BSIM parameter XW
Ignoring BSIM parameter XL
Ignoring BSIM parameter XW
Warning: Pd = 0 is less than W.
Warning: Ps = 0 is less than W.
Warning: Pd = 0 is less than W.
Warning: Ps = 0 is less than W.
Direct Newton iteration for .op point succeeded.

Date: Wed Apr 20 14:05:31 2022
Total elapsed time: 0.156 seconds.

tnom = 27
temp = 27
method = modified trap
totiter = 3219
traniter = 3183
tranpoints = 1341
accept = 1283
rejected = 58
matrix size = 11
fillins = 0
solver = Normal
Matrix Compiler1: 548 bytes object code size  0.2/0.3/[0.1]
Matrix Compiler2: 1.02 KB object code size  0.2/0.2/[0.1]


