Questionable use of curly braces in ".model sir870adp vdmos(rg=3 vto=2.9 rd=3.2m rs=1.5m rb={m} kp=100 mtriode=1.85 cgdmax=1.4n cgdmin=70p cgs=2.9n cjo=3.6n m=.4 a=.7 vj=.7 lambda=20m is=3p ksubthres=.08 mfg=siliconix vds=100 ron=5.5m qg=53.5n)"
    Error: undefined symbol in: "[m]"
Circuit: * C:\Users\arpit\Desktop\Study\WINTER 22\VLSI LAB\TASK 5 files\positive flip flop.asc

Ignoring BSIM parameter XL
Ignoring BSIM parameter XW
Ignoring BSIM parameter XL
Ignoring BSIM parameter XW
Warning: Pd = 0 is less than W.
Warning: Ps = 0 is less than W.
Warning: Pd = 0 is less than W.
Warning: Ps = 0 is less than W.
Warning: Pd = 0 is less than W.
Warning: Ps = 0 is less than W.
Warning: Pd = 0 is less than W.
Warning: Ps = 0 is less than W.
Direct Newton iteration for .op point succeeded.

Date: Wed Apr 20 14:06:13 2022
Total elapsed time: 0.204 seconds.

tnom = 27
temp = 27
method = modified trap
totiter = 3415
traniter = 3365
tranpoints = 1342
accept = 1285
rejected = 57
matrix size = 17
fillins = 2
solver = Normal
Matrix Compiler1: 1.31 KB object code size  0.5/0.4/[0.2]
Matrix Compiler2: 1.83 KB object code size  0.4/1.2/[0.3]


