Questionable use of curly braces in ".model sir870adp vdmos(rg=3 vto=2.9 rd=3.2m rs=1.5m rb={m} kp=100 mtriode=1.85 cgdmax=1.4n cgdmin=70p cgs=2.9n cjo=3.6n m=.4 a=.7 vj=.7 lambda=20m is=3p ksubthres=.08 mfg=siliconix vds=100 ron=5.5m qg=53.5n)"
    Error: undefined symbol in: "[m]"
Circuit: * C:\Users\arpit\Desktop\Study\WINTER 22\VLSI LAB\TASK 3 files\TASK 6.asc

Ignoring BSIM parameter XL
Ignoring BSIM parameter XW
Ignoring BSIM parameter XL
Ignoring BSIM parameter XW
Warning: Pd = 0 is less than W.
Warning: Ps = 0 is less than W.
Warning: Pd = 0 is less than W.
Warning: Ps = 0 is less than W.
Warning: Pd = 0 is less than W.
Warning: Ps = 0 is less than W.
Direct Newton iteration for .op point succeeded.

Date: Wed Mar 16 14:51:12 2022
Total elapsed time: 0.226 seconds.

tnom = 27
temp = 27
method = modified trap
totiter = 5162
traniter = 5151
tranpoints = 1979
accept = 1753
rejected = 226
matrix size = 16
fillins = 0
solver = Normal
Matrix Compiler1: 754 bytes object code size  0.2/0.1/[0.1]
Matrix Compiler2: 1.47 KB object code size  0.1/0.2/[0.1]


